$DATA1 SOURCE='HSPICE' VERSION='K-2015.06-3 linux64' PARAM_COUNT=0
.TITLE '* buffered net sim'
 rise_delay       rise_slew        fall_slew        iavg            
 power            temper           alter#          
  2.350e-10        1.312e-10        9.104e-11       -1.220e-03      
  1.464e-03         25.0000        1               
