$DATA1 SOURCE='HSPICE' VERSION='K-2015.06-3 linux64' PARAM_COUNT=0
.TITLE '* buffered net sim'
 rise_delay       rise_slew        fall_slew        iavg            
 power            temper           alter#          
  2.737e-09        4.572e-10        2.549e-10       -2.359e-03      
  2.831e-03         25.0000        1               
