$DATA1 SOURCE='HSPICE' VERSION='K-2015.06-3 linux64' PARAM_COUNT=0
.TITLE '* buffered net sim'
 rise_delay       rise_slew        fall_slew        iavg            
 power            temper           alter#          
  1.347e-10        6.978e-11        4.985e-11       -1.821e-03      
  2.185e-03         25.0000        1               
