$DATA1 SOURCE='HSPICE' VERSION='K-2015.06-3 linux64' PARAM_COUNT=0
.TITLE '* buffered net sim'
 rise_delay       fall_delay       rise_slew        fall_slew       
 iavg             power            temper           alter#          
  6.550e-11        6.548e-11        2.495e-11        1.888e-11      
 -3.091e-03        3.710e-03         25.0000        1               
