$DATA1 SOURCE='HSPICE' VERSION='K-2015.06-3 linux64' PARAM_COUNT=0
.TITLE '* buffered net sim'
 rise_delay       rise_slew        fall_slew        iavg            
 power            temper           alter#          
  8.600e-11        3.979e-11        2.882e-11       -2.482e-03      
  2.978e-03         25.0000        1               
