$DATA1 SOURCE='HSPICE' VERSION='K-2015.06-3 linux64' PARAM_COUNT=0
.TITLE '* buffered net sim'
 rise_delay       rise_slew        fall_slew        iavg            
 power            temper           alter#          
  2.533e-09        6.529e-11        3.725e-11       -3.641e-04      
  4.369e-04         25.0000        1               
