$DATA1 SOURCE='HSPICE' VERSION='K-2015.06-3 linux64' PARAM_COUNT=0
.TITLE '* buffered net sim'
 gate_delay       wire_delay       temper           alter#          
  4.848e-11        6.261e-12        125.0000        1               
