$DATA1 SOURCE='HSPICE' VERSION='K-2015.06-3 linux64' PARAM_COUNT=0
.TITLE '* buffered net sim'
 gate_delay       wire_delay       temper           alter#          
  5.855e-11        6.457e-12        -30.0000        1               
