$DATA1 SOURCE='HSPICE' VERSION='K-2015.06-3 linux64' PARAM_COUNT=0
.TITLE '* f04 sim'
 rise_delay       fall_delay       rise_slew        fall_slew       
 temper           alter#          
  7.590e-12        5.010e-12        4.505e-12        2.583e-12      
   25.0000        1               
