$DATA1 SOURCE='HSPICE' VERSION='K-2015.06-3 linux64' PARAM_COUNT=0
.TITLE '* net sim'
 rise_delay       temper           alter#          
  1.321e-12         25.0000        1               
